/*--------------------------------*- C++ -*----------------------------------*\
| =========                 |                                                 |
| \\      /  F ield         | OpenFOAM: The Open Source CFD Toolbox           |
|  \\    /   O peration     | Version:  v2512                                 |
|   \\  /    A nd           | Website:  www.openfoam.com                      |
|    \\/     M anipulation  |                                                 |
\*---------------------------------------------------------------------------*/
FoamFile
{
    version     2.0;
    format      ascii;
    class       dictionary;
    location    "constant";
    object      thermophysicalProperties;
}

thermoType
{
    type            hePsiThermo;
    mixture         pureMixture;
    transport       const;
    thermo          hConst;
    equationOfState perfectGas;
    specie          specie;
    energy          sensibleInternalEnergy;
}

mixture
{
    specie
    {
        // Air: molar mass ~28.97 kg/kmol -> R_specific = RR/molWeight ≈ 287 J/(kg K).
        molWeight       28.97;
    }
    thermodynamics
    {
        // Air (ideal gas): Cp ≈ 1004.5 J/(kg K) for gamma=1.4 at ~300K.
        Cp              1004.5;
        Hf              0;
    }
    transport
    {
        // Dynamic viscosity mu [kg/(m s)].
        // Use a deliberately high viscosity to make the flow develop on a short
        // physical time horizon at this coarse resolution (keeps reference generation
        // and solver tests fast and non-trivial).
        mu              1;
        Pr              0.71;
    }
}
