/*--------------------------------*- C++ -*----------------------------------*\
| =========                 |                                                 |
| \\      /  F ield         | OpenFOAM: The Open Source CFD Toolbox           |
|  \\    /   O peration     | Version:  v2512                                 |
|   \\  /    A nd           | Website:  www.openfoam.com                      |
|    \\/     M anipulation  |                                                 |
\*---------------------------------------------------------------------------*/
FoamFile
{
    version     2.0;
    format      ascii;
    class       dictionary;
    object      controlDict;
}

application     pimpleFoam;

startFrom       startTime;
startTime       0;

stopAt          endTime;
endTime         1.6;

deltaT          0.02;

writeControl    timeStep;
writeInterval   80;
purgeWrite      0;

writeFormat     ascii;
writePrecision  10;
writeCompression off;

timeFormat      general;
timePrecision   10;

runTimeModifiable true;

functions
{
    probes
    {
        #include "probes.cfg"
    }
    probesAll
    {
        #include "probes_all.cfg"
    }
}
