/*--------------------------------*- C++ -*----------------------------------*\
| =========                 |                                                 |
| \\      /  F ield         | OpenFOAM: The Open Source CFD Toolbox           |
|  \\    /   O peration     | Version:  v2512                                 |
|   \\  /    A nd           | Website:  www.openfoam.com                      |
|    \\/     M anipulation  |                                                 |
\*---------------------------------------------------------------------------*/
FoamFile
{
    version     2.0;
    format      ascii;
    class       dictionary;
    object      fvSolution;
}

solvers
{
    p
    {
        solver          GAMG;
        tolerance       1e-12;
        relTol          0;
        smoother        GaussSeidel;
    }

    pFinal
    {
        $p;
        relTol          0;
    }

    U
    {
        solver          smoothSolver;
        smoother        symGaussSeidel;
        tolerance       1e-12;
        relTol          0;
    }

    UFinal
    {
        $U;
        relTol          0;
    }
}

PIMPLE
{
    nOuterCorrectors 1;
    nCorrectors     2;
    nNonOrthogonalCorrectors 0;
    momentumPredictor yes;

    // Closed domains need a pressure reference to fix the gauge.
    pRefCell        0;
    pRefValue       0;
}

relaxationFactors
{
    equations
    {
        U               0.7;
        p               0.3;
    }
}
